*Part, name=conrod
*Node
      1,           0., 0.00499999989,           0.
      2,           0., 0.00499999989, 0.00999999978
      3, -0.00499999989,           0., 0.00999999978
      4, -0.00499999989,           0.,           0.
      5,           0., 0.00999999978,           0.
      6,           0., 0.00999999978, 0.00999999978
      7, -0.00999999978, 0.00999999978, 0.00999999978
      8, -0.00999999978,           0., 0.00999999978
      9, -0.00999999978, 0.00999999978,           0.
     10, -0.00999999978,           0.,           0.
     11,           0.,  0.075000003,           0.
     12,           0.,  0.075000003, 0.00999999978
     13, 0.00499999989, 0.0799999982, 0.00999999978
     14, 0.00499999989, 0.0799999982,           0.
     15,           0., 0.0700000003, 0.00999999978
     16,           0., 0.0700000003,           0.
     17, 0.00999999978, 0.0700000003, 0.00999999978
     18, 0.00999999978, 0.0700000003,           0.
     19, 0.00999999978, 0.0799999982, 0.00999999978
     20, 0.00999999978, 0.0800000355,           0.
** ... 915 like lines cut
*Element, type=C3D20
 1, 161,  43, 160, 252,  41,   1,  42, 159, 277, 276, 275, 274, 278, 279, 280,
    281, 283, 282, 284, 285
 2, 160,  45, 162, 252,  42,   2,  44, 159, 288, 287, 286, 275, 289, 290, 291,
    280, 284, 292, 293, 285
 3, 162,  47, 163, 252,  44,   3,  46, 159, 296, 295, 294, 286, 297, 298, 299,
    291, 293, 300, 301, 285
 4, 163,  48, 161, 252,  46,   4,  41, 159, 303, 302, 274, 294, 304, 305, 281,
    299, 301, 306, 283, 285
 5, 161,  50, 164, 252,  43,   5,  49, 160, 309, 308, 307, 274, 310, 311, 312,
    276, 277, 313, 314, 275
 6, 164,  51, 162, 252,  49,   6,  45, 160, 316, 315, 286, 307, 317, 318, 288,
    312, 314, 319, 287, 275
 7, 164,  53, 165, 252,  51,   7,  52, 162, 322, 321, 320, 307, 323, 324, 325,
    315, 316, 326, 327, 286
 8, 165,  54, 163, 252,  52,   8,  47, 162, 329, 328, 294, 320, 330, 331, 296,
    325, 327, 332, 295, 286
 9, 161,  55, 165, 252,  50,   9,  53, 164, 334, 333, 320, 274, 335, 336, 322,
    308, 309, 337, 321, 307
10, 163,  54, 165, 252,  48,  10,  55, 161, 328, 329, 320, 294, 338, 339, 334,
    302, 303, 340, 333, 274
** ... 252 like lines cut
*Nset, nset=_PickedSet16, internal, generate
   1,  935,    1
*Elset, elset=_PickedSet16, internal, generate
   1,  136,    1
** Section: section_homogen_solid
*Solid Section, elset=_PickedSet16, material=steel
,
*End Part
** ASSEMBLY
**
*Assembly, name=Assembly
**  
*Instance, name=Instance, part=conrod
*End Instance
**  
*End Assembly
** 
** MATERIALS
** 
*Material, name=steel
*Density
7850.,
*Elastic
 2.1e+11, 0.3
** STEP
*step, name=step_matrix_generate_conrod
*MATRIX GENERATE, MASS, STIFFNESS
*MATRIX OUTPUT, MASS, STIFFNESS, FORMAT=COORDINATE
*END STEP