*Heading
** Job name: blockC3D8 Model name: Model-1
** Generated by: Abaqus/CAE 2021
*Preprint, echo=NO, model=NO, history=NO, contact=NO
**
** PARTS
**
*Part, name=block
*End Part
**  
**
** ASSEMBLY
**
*Assembly, name=Assembly
**  
*Instance, name=block-1, part=block
*Node
      1,           4.,           1.,           1.
      2,           4.,  0.666666687,           1.
      3,           4.,  0.333333343,           1.
      4,           4.,           0.,           1.
      5,           4.,           1.,  0.666666687
      6,           4.,  0.666666687,  0.666666687
      7,           4.,  0.333333343,  0.666666687
      8,           4.,           0.,  0.666666687
      9,           4.,           1.,  0.333333343
     10,           4.,  0.666666687,  0.333333343
     11,           4.,  0.333333343,  0.333333343
     12,           4.,           0.,  0.333333343
     13,           4.,           1.,           0.
     14,           4.,  0.666666687,           0.
     15,           4.,  0.333333343,           0.
     16,           4.,           0.,           0.
     17,    3.5999999,           1.,           1.
     18,    3.5999999,  0.666666687,           1.
     19,    3.5999999,  0.333333343,           1.
     20,    3.5999999,           0.,           1.
** ... 156 like lines cut
*Element, type=C3D8
 1,  17,  18,  22,  21,   1,   2,   6,   5
 2,  18,  19,  23,  22,   2,   3,   7,   6
 3,  19,  20,  24,  23,   3,   4,   8,   7
 4,  21,  22,  26,  25,   5,   6,  10,   9
 5,  22,  23,  27,  26,   6,   7,  11,  10
 6,  23,  24,  28,  27,   7,   8,  12,  11
 7,  25,  26,  30,  29,   9,  10,  14,  13
 8,  26,  27,  31,  30,  10,  11,  15,  14
 9,  27,  28,  32,  31,  11,  12,  16,  15
10,  33,  34,  38,  37,  17,  18,  22,  21
11,  34,  35,  39,  38,  18,  19,  23,  22
12,  35,  36,  40,  39,  19,  20,  24,  23
13,  37,  38,  42,  41,  21,  22,  26,  25
14,  38,  39,  43,  42,  22,  23,  27,  26
15,  39,  40,  44,  43,  23,  24,  28,  27
16,  41,  42,  46,  45,  25,  26,  30,  29
17,  42,  43,  47,  46,  26,  27,  31,  30
18,  43,  44,  48,  47,  27,  28,  32,  31
19,  49,  50,  54,  53,  33,  34,  38,  37
20,  50,  51,  55,  54,  34,  35,  39,  38
** ... 70 like lines cut
*Nset, nset=Set-1, generate
   1,  176,    1
*Elset, elset=Set-1, generate
  1,  90,   1
** Section: Section-1
*Solid Section, elset=Set-1, material=steel
,
*End Instance
**  
*End Assembly
** 
** MATERIALS
** 
*Material, name=steel
*Density
2900.,
*Elastic
 2e+11, 0.3
*Step, name=Step-2, nlgeom=NO
** modified Inputfile -> Export MASS and STIFFNESS matrices
** for export a consistent mass matrix MASS=CONSISTENT for lumped only MASS
*MATRIX GENERATE, STIFFNESS, MASS
*MATRIX OUTPUT, STIFFNESS, MASS, FORMAT=COORDINATE
*End Step