*Heading
** Job name: blockC3D10 Model name: Model-1
** Generated by: Abaqus/CAE 2021
*Preprint, echo=NO, model=NO, history=NO, contact=NO
**
** PARTS
**
*Part, name=block
*End Part
**  
**
** ASSEMBLY
**
*Assembly, name=Assembly
**  
*Instance, name=block-1, part=block
*Node
      1,           4.,           1.,           1.
      2,           4.,           0.,           1.
      3,           4.,           0.,           0.
      4,           4.,           1.,           0.
      5,           0.,           0.,           1.
      6,           0.,           0.,           0.
      7,           0.,           1.,           0.
      8,           0.,           1.,           1.
      9,           4.,          0.5,           1.
     10,           4.,           0.,          0.5
     11,           4.,          0.5,           0.
     12,           4.,           1.,          0.5
     13,           3.,           0.,           1.
     14,           2.,           0.,           1.
     15,           1.,           0.,           1.
     16,           0.,           0.,          0.5
     17,           1.,           0.,           0.
     18,           2.,           0.,           0.
     19,           3.,           0.,           0.
     20,           0.,          0.5,           0.
** ... 237 like lines cut
*Element, type=C3D10
  1,  43,  37,  44,  22,  51,  50,  49,  53,  52,  54
  2,  43,  18,  35,  34,  57,  56,  55,  59,  58,  60
  3,  43,  17,  32,  35,  63,  62,  61,  55,  64,  65
  4,  43,  14,  40,  39,  68,  67,  66,  70,  69,  71
  5,  43,  36,  22,  21,  73,  72,  53,  75,  74,  76
  6,  43,  44,  40,  31,  49,  77,  66,  79,  78,  80
  7,  44,  40,  14,  13,  77,  67,  81,  83,  82,  84
  8,  44,  34,  18,  31,  86,  58,  85,  78,  87,  88
  9,  44,  18,  34,  19,  85,  58,  86,  90,  89,  91
 10,  44,  19,  34,  33,  90,  91,  86,  93,  92,  94
 11,  44,  37,  23,  22,  50,  96,  95,  54,  52,  97
 12,  44,  38,  26,  41, 100,  99,  98, 102, 101, 103
 13,  44,  38,  25,  26, 100, 105, 104,  98,  99, 106
 14,  44,  41,  13,  30, 102, 107,  83, 109, 108, 110
 15,  44,  37,  40,  25,  50, 111,  77, 104, 112, 113
 16,  44,  37,  38,  23,  50, 114, 100,  95,  96, 115
 17,  45,  46,  30,  33, 118, 117, 116, 120, 119, 121
 18,  45,  33,  11,  46, 120, 123, 122, 118, 119, 124
 19,  45,  46,  11,  29, 118, 124, 122, 126, 125, 127
 20,  45,   1,   9,  29, 130, 129, 128, 126, 131, 132
** ... 102 like lines cut
*Nset, nset=Set-1, generate
   1,  257,    1
*Elset, elset=Set-1, generate
   1,  122,    1
** Section: Section-1
*Solid Section, elset=Set-1, material=steel
,
*End Instance
**  
*End Assembly
** 
** MATERIALS
** 
*Material, name=steel
*Density
2900.,
*Elastic
 2e+11, 0.3
*Step, name=Step-2, nlgeom=NO
** modified Inputfile -> Export MASS and STIFFNESS matrices
** for export a consistent mass matrix MASS=CONSISTENT for lumped only MASS
*MATRIX GENERATE, STIFFNESS, MASS
*MATRIX OUTPUT, STIFFNESS, MASS, FORMAT=COORDINATE
*End Step