*Heading
** Job name: blockC3D20 Model name: Model-1
** Generated by: Abaqus/CAE 2021
*Preprint, echo=NO, model=NO, history=NO, contact=NO
**
** PARTS
**
*Part, name=block
*End Part
**  
**
** ASSEMBLY
**
*Assembly, name=Assembly
**  
*Instance, name=block-1, part=block
*Node
      1,           4.,           1.,           1.
      2,           4.,          0.5,           1.
      3,           4.,           0.,           1.
      4,           4.,           1.,          0.5
      5,           4.,          0.5,          0.5
      6,           4.,           0.,          0.5
      7,           4.,           1.,           0.
      8,           4.,          0.5,           0.
      9,           4.,           0.,           0.
     10,   3.20000005,           1.,           1.
     11,   3.20000005,          0.5,           1.
     12,   3.20000005,           0.,           1.
     13,   3.20000005,           1.,          0.5
     14,   3.20000005,          0.5,          0.5
     15,   3.20000005,           0.,          0.5
     16,   3.20000005,           1.,           0.
     17,   3.20000005,          0.5,           0.
     18,   3.20000005,           0.,           0.
     19,    2.4000001,           1.,           1.
     20,    2.4000001,          0.5,           1.
** ... 151 like lines cut
*Element, type=C3D20
 1,  10,  11,  14,  13,   1,   2,   5,   4,  58,  57,  56,  55,  59,  60,  61,
     62,  64,  63,  65,  66
 2,  11,  12,  15,  14,   2,   3,   6,   5,  69,  68,  67,  57,  70,  71,  72,
     60,  63,  73,  74,  65
 3,  13,  14,  17,  16,   4,   5,   8,   7,  56,  77,  76,  75,  61,  78,  79,
     80,  66,  65,  81,  82
 4,  14,  15,  18,  17,   5,   6,   9,   8,  67,  84,  83,  77,  72,  85,  86,
     78,  65,  74,  87,  81
 5,  19,  20,  23,  22,  10,  11,  14,  13,  91,  90,  89,  88,  58,  57,  56,
     55,  93,  92,  94,  95
 6,  20,  21,  24,  23,  11,  12,  15,  14,  98,  97,  96,  90,  69,  68,  67,
     57,  92,  99, 100,  94
 7,  22,  23,  26,  25,  13,  14,  17,  16,  89, 103, 102, 101,  56,  77,  76,
     75,  95,  94, 104, 105
 8,  23,  24,  27,  26,  14,  15,  18,  17,  96, 107, 106, 103,  67,  84,  83,
     77,  94, 100, 108, 104
 9,  28,  29,  32,  31,  19,  20,  23,  22, 112, 111, 110, 109,  91,  90,  89,
     88, 114, 113, 115, 116
10,  29,  30,  33,  32,  20,  21,  24,  23, 119, 118, 117, 111,  98,  97,  96,
     90, 113, 120, 121, 115
** ... 20 like lines cut
*Nset, nset=Set-1, generate
   1,  171,    1
*Elset, elset=Set-1, generate
  1,  20,   1
** Section: Section-1
*Solid Section, elset=Set-1, material=steel
,
*End Instance
**  
*End Assembly
** 
** MATERIALS
** 
*Material, name=steel
*Density
2900.,
*Elastic
 2e+11, 0.3
*Step, name=Step-2, nlgeom=NO
** modified Inputfile -> Export MASS and STIFFNESS matrices
** for export a consistent mass matrix MASS=CONSISTENT for lumped only MASS
*MATRIX GENERATE, STIFFNESS, MASS
*MATRIX OUTPUT, STIFFNESS, MASS, FORMAT=COORDINATE
*End Step