*Heading
** Job name: eigenvalues_rotorDisc Model name: Model-1
** Generated by: Abaqus/CAE 2019
*Preprint, echo=NO, model=NO, history=NO, contact=NO
**
** PARTS
**
*Part, name=rotor
*End Part
**  
**
** ASSEMBLY
**
*Assembly, name=Assembly
**  
*Instance, name=rotor-1, part=rotor
*Node
      1,           0., -0.195984438,  0.150000006
      2,           0., -0.0500000007,  0.150000006
      3, -0.0500000007, -0.0500000007,  0.150000006
      4, -0.138581932, -0.138581932,  0.150000006
      5,           0., -0.0500000007,  0.100000001
      6, -0.0500000007, -0.0500000007,  0.100000001
      7, -0.138581932, -0.138581932,  0.100000001
      8,           0., -0.195984438,  0.100000001
      9,           0., 0.0500000007,  0.150000006
     10,           0.,  0.195984438,  0.150000006
     11, -0.138581932,  0.138581932,  0.150000006
     12, -0.0500000007, 0.0500000007,  0.150000006
     13,           0.,  0.195984438,  0.100000001
     14, -0.138581932,  0.138581932,  0.100000001
     15, -0.0500000007, 0.0500000007,  0.100000001
     16,           0., 0.0500000007,  0.100000001
     17, 0.0500000007, 0.0500000007,  0.150000006
     18,  0.138581932,  0.138581932,  0.150000006
     19, 0.0500000007, 0.0500000007,  0.100000001
     20,  0.138581932,  0.138581932,  0.100000001
** ... 95 like lines cut
*Element, type=C3D8
1, 8, 5, 6, 7, 1, 2, 3, 4
2, 16, 13, 14, 15,  9, 10, 11, 12
3, 13, 16, 19, 20, 10,  9, 17, 18
4, 28, 25, 26, 27, 21, 22, 23, 24
5,  5,  8, 25, 28,  2,  1, 22, 21
6, 15, 14, 31, 32, 12, 11, 29, 30
7, 32, 31,  7,  6, 30, 29,  4,  3
8, 27, 26, 20, 19, 24, 23, 18, 17
 9,  60,  93, 107,  79,  33,  41,  77,  44
10,  93,  69,  86, 107,  41,  34,  42,  77
11,  79, 107, 100,  49,  44,  77,  43,  36
12, 107,  86,  68, 100,  77,  42,  35,  43
13,  59,  94, 108,  80,  60,  93, 107,  79
14,  94,  70,  87, 108,  93,  69,  86, 107
15,  80, 108, 101,  50,  79, 107, 100,  49
16, 108,  87,  67, 101, 107,  86,  68, 100
17,  58,  95, 109,  81,  59,  94, 108,  80
18,  95,  71,  88, 109,  94,  70,  87, 108
19,  81, 109, 102,  51,  80, 108, 101,  50
20, 109,  88,  66, 102, 108,  87,  67, 101
** ... 28 like lines cut
*Nset, nset=Set-1, generate
   1,  115,    1
*Elset, elset=Set-1, generate
  1,  48,   1
** Section: rotor
*Solid Section, elset=Set-1, material=steel
,
*End Instance
**  
*Nset, nset=BCleft, instance=rotor-1
 78,
*Nset, nset=BCright, instance=rotor-1
 77,
*Nset, nset=BCrot, instance=rotor-1
 43,
*Nset, nset=NodeMiddle, instance=rotor-1
 111,
*Elset, elset=_Surface_S1, internal, instance=rotor-1
  1,  2,  3,  4,  5,  6,  7,  8, 45, 46, 47, 48
*Elset, elset=_Surface_S2, internal, instance=rotor-1, generate
  1,  12,   1
*Elset, elset=_Surface_S6, internal, instance=rotor-1
  1,  3,  9, 11, 13, 15, 17, 19, 21, 23, 25, 27, 29, 31, 33, 35
 41, 43, 45, 47
*Elset, elset=_Surface_S4, internal, instance=rotor-1
  2,  4,  5,  6,  7,  8, 10, 12, 14, 16, 18, 20, 22, 24, 26, 28
 30, 32, 34, 36, 42, 44, 46, 48
*Elset, elset=_Surface_S3, internal, instance=rotor-1
  9, 10, 13, 14, 17, 18, 21, 22, 25, 26, 29, 30, 33, 34, 41, 42
 45, 46
*Elset, elset=_Surface_S5, internal, instance=rotor-1
 11, 12, 15, 16, 19, 20, 23, 24, 27, 28, 31, 32, 35, 36, 43, 44
 47, 48
*Surface, type=ELEMENT, name=Surface
_Surface_S1, S1
_Surface_S2, S2
_Surface_S6, S6
_Surface_S4, S4
_Surface_S3, S3
_Surface_S5, S5
*End Assembly
** 
** MATERIALS
** 
*Material, name=steel
*Density
7850.,
*Elastic
 2.1e+11, 0.3
** ----------------------------------------------------------------
** modified Inputfile -> Export MASS and STIFFNESS matrices
*STEP
*MATRIX GENERATE, STIFFNESS, MASS
*MATRIX OUTPUT, STIFFNESS, MASS, FORMAT=COORDINATE
*End Step
