*Heading
** PARTS
**
*Part, name=crank
*Node
      1, -0.00999999978, 0.0199999996,           0.
      2,           0., 0.0199999996,           0.
      3,           0., 0.00999999978,           0.
      4, -0.00999999978, 0.00999999978,           0.
      5,           0., 0.0199999996, 0.00999999978
      6,           0., 0.00999999978, 0.00999999978
      7, -0.00999999978, 0.00999999978, 0.00999999978
      8, -0.00999999978, 0.0199999996, 0.00999999978
      9,           0., 0.00499999989,           0.
     10, -0.00499999989,           0.,           0.
     11, -0.00999999978,  -3.53735494e-08,           0.
     12, -0.00999999978,           0., 0.00999999978
     13, -0.00499999989,           0., 0.00999999978
     14,           0., 0.00499999989, 0.00999999978
     15, 0.00999999978, 0.00999999978,           0.
     16, 0.00999999978,           0.,           0.
     17, 0.00499999989,           0.,           0.
     18, 0.00332181924, 0.00373704662,           0.
     19, 0.00999999978, 0.00999999978, 0.00999999978
     20, 0.00332181924, 0.00373704662, 0.00999999978
** ... 645 like lines cut
*Element, type=C3D20
1,  41,  84,  85,  40,   1,  36,  37,   4, 115, 114, 113, 112, 116, 117, 118,
   119, 121, 120, 122, 123
2,  84,  43,  42,  85,  36,   2,   3,  37, 126, 125, 124, 114, 127, 128, 129,
   117, 120, 130, 131, 122
3,   8,  38,  39,   7,  41,  84,  85,  40, 135, 134, 133, 132, 115, 114, 113,
   112, 137, 136, 138, 139
4,  38,   5,   6,  39,  84,  43,  42,  85, 142, 141, 140, 134, 126, 125, 124,
   114, 136, 143, 144, 138
 5,  87,  40,  85, 108,  44,   4,  37,  86, 147, 113, 146, 145, 148, 118, 149,
    150, 151, 123, 122, 152
 6,  85,  42,  88, 108,  37,   3,  45,  86, 124, 154, 153, 146, 129, 155, 156,
    149, 122, 131, 157, 152
 7,  88,  47,  89, 108,  45,   9,  46,  86, 160, 159, 158, 153, 161, 162, 163,
    156, 157, 164, 165, 152
 8,  89,  49,  90, 108,  46,  10,  48,  86, 168, 167, 166, 158, 169, 170, 171,
    163, 165, 172, 173, 152
 9,  90,  50,  87, 108,  48,  11,  44,  86, 175, 174, 145, 166, 176, 177, 150,
    171, 173, 178, 151, 152
10,  87,  51,  91, 108,  40,   7,  39,  85, 181, 180, 179, 145, 139, 133, 138,
    113, 147, 182, 183, 146
** ... 188 like lines cut
*Nset, nset=_PickedSet4, internal, generate
   1,  665,    1
*Elset, elset=_PickedSet4, internal, generate
   1,  104,    1
** Section: section_homo_solid
*Solid Section, elset=_PickedSet4, material=steel
,
*End Part
** ASSEMBLY
**
*Assembly, name=Assembly
**  
*Instance, name=Instance, part=crank
*End Instance
**  
*End Assembly
** 
** MATERIALS
** 
*Material, name=steel
*Density
7850.,
*Elastic
 2.1e+11, 0.3
** STEP
*step, name=step_matrix_generate_crank
*MATRIX GENERATE, MASS, STIFFNESS
*MATRIX OUTPUT, MASS, STIFFNESS, FORMAT=COORDINATE
*END STEP